Circuit: * C:\Users\Teacakes\Documents\sem\electronics\High Voltage\oscillator_simplified.asc

WARNING: Less than two connections to node REF.  This node is used by V3.
Direct Newton iteration for .op point succeeded.

Date: Mon Aug 04 20:28:14 2025
Total elapsed time: 17.429 seconds.

tnom = 27
temp = 27
method = modified trap
totiter = 1527370
traniter = 1527344
tranpoints = 561164
accept = 377503
rejected = 183661
matrix size = 29
fillins = 11
solver = Alternate
Matrix Compiler1: 2.76 KB object code size  0.6/0.4/[0.2]
Matrix Compiler2: 3.43 KB object code size  0.4/0.5/[0.4]

